*SPEF "ieee 1481-1999"
*DESIGN "life_cell"
*DATE "11:11:11 Fri 11 11, 1111"
*VENDOR "OpenRCX"
*PROGRAM "Parallel Extraction"
*VERSION "1.0"
*DESIGN_FLOW "NAME_SCOPE LOCAL" "PIN_CAP NONE"
*DIVIDER /
*DELIMITER :
*BUS_DELIMITER []
*T_UNIT 1 NS
*C_UNIT 1 PF
*R_UNIT 1 OHM
*L_UNIT 1 HENRY

*NAME_MAP
*3 clk
*4 d
*5 dl
*6 dr
*7 in_data
*8 l
*9 load_in
*10 load_out
*11 out_data
*12 prev_out_data
*13 r
*14 reset
*15 run
*16 shift
*17 state
*18 u
*19 ul
*20 ur
*21 vccd1
*22 vssd1
*23 _00_
*24 _01_
*25 _02_
*26 _03_
*27 _04_
*28 _05_
*29 _06_
*30 _07_
*31 _08_
*32 _09_
*33 _10_
*34 _11_
*35 _12_
*36 _13_
*37 _14_
*38 _15_
*39 _16_
*40 _17_
*41 _18_
*42 _19_
*43 _20_
*44 _21_
*45 _22_
*46 _23_
*47 _24_
*48 _25_
*49 _26_
*50 _27_
*51 _28_
*52 _29_
*53 _30_
*54 _31_
*55 clknet_0_clk
*56 clknet_1_0__leaf_clk
*57 clknet_1_1__leaf_clk
*58 net1
*59 net10
*60 net11
*61 net12
*62 net13
*63 net14
*64 net15
*65 net16
*66 net17
*67 net2
*68 net3
*69 net4
*70 net5
*71 net6
*72 net7
*73 net8
*74 net9
*75 FILLER_0_109
*76 FILLER_0_113
*77 FILLER_0_122
*78 FILLER_0_134
*79 FILLER_0_141
*80 FILLER_0_153
*81 FILLER_0_165
*82 FILLER_0_169
*83 FILLER_0_175
*84 FILLER_0_18
*85 FILLER_0_187
*86 FILLER_0_195
*87 FILLER_0_197
*88 FILLER_0_209
*89 FILLER_0_221
*90 FILLER_0_228
*91 FILLER_0_232
*92 FILLER_0_26
*93 FILLER_0_29
*94 FILLER_0_3
*95 FILLER_0_41
*96 FILLER_0_53
*97 FILLER_0_57
*98 FILLER_0_69
*99 FILLER_0_81
*100 FILLER_0_85
*101 FILLER_0_97
*102 FILLER_10_109
*103 FILLER_10_121
*104 FILLER_10_133
*105 FILLER_10_139
*106 FILLER_10_141
*107 FILLER_10_15
*108 FILLER_10_153
*109 FILLER_10_165
*110 FILLER_10_177
*111 FILLER_10_189
*112 FILLER_10_195
*113 FILLER_10_197
*114 FILLER_10_209
*115 FILLER_10_221
*116 FILLER_10_27
*117 FILLER_10_29
*118 FILLER_10_3
*119 FILLER_10_41
*120 FILLER_10_53
*121 FILLER_10_66
*122 FILLER_10_78
*123 FILLER_10_85
*124 FILLER_10_97
*125 FILLER_11_105
*126 FILLER_11_111
*127 FILLER_11_113
*128 FILLER_11_125
*129 FILLER_11_137
*130 FILLER_11_149
*131 FILLER_11_15
*132 FILLER_11_161
*133 FILLER_11_167
*134 FILLER_11_169
*135 FILLER_11_181
*136 FILLER_11_193
*137 FILLER_11_205
*138 FILLER_11_217
*139 FILLER_11_223
*140 FILLER_11_225
*141 FILLER_11_27
*142 FILLER_11_3
*143 FILLER_11_39
*144 FILLER_11_51
*145 FILLER_11_55
*146 FILLER_11_57
*147 FILLER_11_69
*148 FILLER_11_81
*149 FILLER_11_93
*150 FILLER_12_109
*151 FILLER_12_121
*152 FILLER_12_128
*153 FILLER_12_141
*154 FILLER_12_15
*155 FILLER_12_153
*156 FILLER_12_165
*157 FILLER_12_177
*158 FILLER_12_189
*159 FILLER_12_195
*160 FILLER_12_197
*161 FILLER_12_209
*162 FILLER_12_221
*163 FILLER_12_27
*164 FILLER_12_29
*165 FILLER_12_3
*166 FILLER_12_41
*167 FILLER_12_53
*168 FILLER_12_65
*169 FILLER_12_77
*170 FILLER_12_83
*171 FILLER_12_85
*172 FILLER_12_97
*173 FILLER_13_105
*174 FILLER_13_111
*175 FILLER_13_113
*176 FILLER_13_125
*177 FILLER_13_137
*178 FILLER_13_149
*179 FILLER_13_15
*180 FILLER_13_161
*181 FILLER_13_167
*182 FILLER_13_169
*183 FILLER_13_181
*184 FILLER_13_193
*185 FILLER_13_205
*186 FILLER_13_217
*187 FILLER_13_223
*188 FILLER_13_225
*189 FILLER_13_27
*190 FILLER_13_3
*191 FILLER_13_39
*192 FILLER_13_51
*193 FILLER_13_55
*194 FILLER_13_57
*195 FILLER_13_69
*196 FILLER_13_81
*197 FILLER_13_93
*198 FILLER_14_109
*199 FILLER_14_122
*200 FILLER_14_134
*201 FILLER_14_141
*202 FILLER_14_15
*203 FILLER_14_153
*204 FILLER_14_165
*205 FILLER_14_177
*206 FILLER_14_189
*207 FILLER_14_195
*208 FILLER_14_197
*209 FILLER_14_209
*210 FILLER_14_221
*211 FILLER_14_27
*212 FILLER_14_29
*213 FILLER_14_3
*214 FILLER_14_41
*215 FILLER_14_53
*216 FILLER_14_65
*217 FILLER_14_77
*218 FILLER_14_83
*219 FILLER_14_85
*220 FILLER_14_97
*221 FILLER_15_105
*222 FILLER_15_111
*223 FILLER_15_113
*224 FILLER_15_124
*225 FILLER_15_136
*226 FILLER_15_15
*227 FILLER_15_161
*228 FILLER_15_167
*229 FILLER_15_169
*230 FILLER_15_181
*231 FILLER_15_193
*232 FILLER_15_205
*233 FILLER_15_217
*234 FILLER_15_223
*235 FILLER_15_225
*236 FILLER_15_27
*237 FILLER_15_3
*238 FILLER_15_39
*239 FILLER_15_51
*240 FILLER_15_55
*241 FILLER_15_57
*242 FILLER_15_69
*243 FILLER_15_81
*244 FILLER_15_93
*245 FILLER_16_109
*246 FILLER_16_121
*247 FILLER_16_129
*248 FILLER_16_135
*249 FILLER_16_148
*250 FILLER_16_15
*251 FILLER_16_160
*252 FILLER_16_172
*253 FILLER_16_184
*254 FILLER_16_197
*255 FILLER_16_209
*256 FILLER_16_221
*257 FILLER_16_27
*258 FILLER_16_29
*259 FILLER_16_3
*260 FILLER_16_41
*261 FILLER_16_53
*262 FILLER_16_65
*263 FILLER_16_77
*264 FILLER_16_83
*265 FILLER_16_85
*266 FILLER_16_97
*267 FILLER_17_105
*268 FILLER_17_111
*269 FILLER_17_113
*270 FILLER_17_121
*271 FILLER_17_143
*272 FILLER_17_15
*273 FILLER_17_156
*274 FILLER_17_169
*275 FILLER_17_181
*276 FILLER_17_193
*277 FILLER_17_205
*278 FILLER_17_217
*279 FILLER_17_223
*280 FILLER_17_225
*281 FILLER_17_27
*282 FILLER_17_3
*283 FILLER_17_39
*284 FILLER_17_51
*285 FILLER_17_55
*286 FILLER_17_57
*287 FILLER_17_69
*288 FILLER_17_81
*289 FILLER_17_93
*290 FILLER_18_109
*291 FILLER_18_135
*292 FILLER_18_139
*293 FILLER_18_141
*294 FILLER_18_153
*295 FILLER_18_165
*296 FILLER_18_177
*297 FILLER_18_18
*298 FILLER_18_189
*299 FILLER_18_195
*300 FILLER_18_197
*301 FILLER_18_209
*302 FILLER_18_221
*303 FILLER_18_229
*304 FILLER_18_26
*305 FILLER_18_29
*306 FILLER_18_41
*307 FILLER_18_53
*308 FILLER_18_6
*309 FILLER_18_65
*310 FILLER_18_77
*311 FILLER_18_83
*312 FILLER_18_85
*313 FILLER_18_97
*314 FILLER_19_105
*315 FILLER_19_111
*316 FILLER_19_113
*317 FILLER_19_125
*318 FILLER_19_137
*319 FILLER_19_147
*320 FILLER_19_15
*321 FILLER_19_159
*322 FILLER_19_167
*323 FILLER_19_178
*324 FILLER_19_190
*325 FILLER_19_202
*326 FILLER_19_214
*327 FILLER_19_222
*328 FILLER_19_225
*329 FILLER_19_27
*330 FILLER_19_3
*331 FILLER_19_39
*332 FILLER_19_51
*333 FILLER_19_55
*334 FILLER_19_57
*335 FILLER_19_69
*336 FILLER_19_81
*337 FILLER_19_93
*338 FILLER_1_105
*339 FILLER_1_111
*340 FILLER_1_113
*341 FILLER_1_125
*342 FILLER_1_137
*343 FILLER_1_149
*344 FILLER_1_161
*345 FILLER_1_167
*346 FILLER_1_169
*347 FILLER_1_18
*348 FILLER_1_181
*349 FILLER_1_193
*350 FILLER_1_205
*351 FILLER_1_217
*352 FILLER_1_223
*353 FILLER_1_225
*354 FILLER_1_229
*355 FILLER_1_30
*356 FILLER_1_42
*357 FILLER_1_54
*358 FILLER_1_57
*359 FILLER_1_6
*360 FILLER_1_69
*361 FILLER_1_81
*362 FILLER_1_93
*363 FILLER_20_109
*364 FILLER_20_115
*365 FILLER_20_128
*366 FILLER_20_136
*367 FILLER_20_141
*368 FILLER_20_15
*369 FILLER_20_154
*370 FILLER_20_166
*371 FILLER_20_178
*372 FILLER_20_190
*373 FILLER_20_197
*374 FILLER_20_209
*375 FILLER_20_221
*376 FILLER_20_27
*377 FILLER_20_29
*378 FILLER_20_3
*379 FILLER_20_41
*380 FILLER_20_53
*381 FILLER_20_65
*382 FILLER_20_77
*383 FILLER_20_83
*384 FILLER_20_85
*385 FILLER_20_97
*386 FILLER_21_105
*387 FILLER_21_111
*388 FILLER_21_113
*389 FILLER_21_125
*390 FILLER_21_137
*391 FILLER_21_149
*392 FILLER_21_15
*393 FILLER_21_161
*394 FILLER_21_167
*395 FILLER_21_169
*396 FILLER_21_181
*397 FILLER_21_193
*398 FILLER_21_205
*399 FILLER_21_217
*400 FILLER_21_223
*401 FILLER_21_225
*402 FILLER_21_27
*403 FILLER_21_3
*404 FILLER_21_39
*405 FILLER_21_51
*406 FILLER_21_55
*407 FILLER_21_57
*408 FILLER_21_69
*409 FILLER_21_81
*410 FILLER_21_93
*411 FILLER_22_109
*412 FILLER_22_121
*413 FILLER_22_139
*414 FILLER_22_141
*415 FILLER_22_15
*416 FILLER_22_153
*417 FILLER_22_165
*418 FILLER_22_177
*419 FILLER_22_189
*420 FILLER_22_195
*421 FILLER_22_197
*422 FILLER_22_209
*423 FILLER_22_221
*424 FILLER_22_27
*425 FILLER_22_29
*426 FILLER_22_3
*427 FILLER_22_41
*428 FILLER_22_53
*429 FILLER_22_65
*430 FILLER_22_77
*431 FILLER_22_83
*432 FILLER_22_85
*433 FILLER_22_97
*434 FILLER_23_105
*435 FILLER_23_111
*436 FILLER_23_113
*437 FILLER_23_125
*438 FILLER_23_132
*439 FILLER_23_144
*440 FILLER_23_15
*441 FILLER_23_156
*442 FILLER_23_169
*443 FILLER_23_181
*444 FILLER_23_193
*445 FILLER_23_205
*446 FILLER_23_217
*447 FILLER_23_223
*448 FILLER_23_225
*449 FILLER_23_27
*450 FILLER_23_3
*451 FILLER_23_39
*452 FILLER_23_51
*453 FILLER_23_55
*454 FILLER_23_57
*455 FILLER_23_69
*456 FILLER_23_81
*457 FILLER_23_93
*458 FILLER_24_109
*459 FILLER_24_121
*460 FILLER_24_133
*461 FILLER_24_139
*462 FILLER_24_141
*463 FILLER_24_15
*464 FILLER_24_153
*465 FILLER_24_165
*466 FILLER_24_177
*467 FILLER_24_189
*468 FILLER_24_195
*469 FILLER_24_197
*470 FILLER_24_209
*471 FILLER_24_221
*472 FILLER_24_27
*473 FILLER_24_29
*474 FILLER_24_3
*475 FILLER_24_41
*476 FILLER_24_53
*477 FILLER_24_65
*478 FILLER_24_77
*479 FILLER_24_83
*480 FILLER_24_85
*481 FILLER_24_97
*482 FILLER_25_105
*483 FILLER_25_111
*484 FILLER_25_113
*485 FILLER_25_125
*486 FILLER_25_137
*487 FILLER_25_149
*488 FILLER_25_15
*489 FILLER_25_161
*490 FILLER_25_167
*491 FILLER_25_169
*492 FILLER_25_181
*493 FILLER_25_193
*494 FILLER_25_205
*495 FILLER_25_217
*496 FILLER_25_223
*497 FILLER_25_225
*498 FILLER_25_27
*499 FILLER_25_3
*500 FILLER_25_39
*501 FILLER_25_51
*502 FILLER_25_55
*503 FILLER_25_57
*504 FILLER_25_69
*505 FILLER_25_81
*506 FILLER_25_93
*507 FILLER_26_109
*508 FILLER_26_121
*509 FILLER_26_133
*510 FILLER_26_139
*511 FILLER_26_141
*512 FILLER_26_15
*513 FILLER_26_153
*514 FILLER_26_165
*515 FILLER_26_177
*516 FILLER_26_189
*517 FILLER_26_195
*518 FILLER_26_197
*519 FILLER_26_209
*520 FILLER_26_221
*521 FILLER_26_27
*522 FILLER_26_29
*523 FILLER_26_3
*524 FILLER_26_41
*525 FILLER_26_53
*526 FILLER_26_65
*527 FILLER_26_77
*528 FILLER_26_83
*529 FILLER_26_85
*530 FILLER_26_97
*531 FILLER_27_105
*532 FILLER_27_111
*533 FILLER_27_113
*534 FILLER_27_125
*535 FILLER_27_137
*536 FILLER_27_149
*537 FILLER_27_15
*538 FILLER_27_161
*539 FILLER_27_167
*540 FILLER_27_169
*541 FILLER_27_181
*542 FILLER_27_193
*543 FILLER_27_205
*544 FILLER_27_217
*545 FILLER_27_223
*546 FILLER_27_225
*547 FILLER_27_27
*548 FILLER_27_3
*549 FILLER_27_39
*550 FILLER_27_51
*551 FILLER_27_55
*552 FILLER_27_57
*553 FILLER_27_69
*554 FILLER_27_81
*555 FILLER_27_93
*556 FILLER_28_109
*557 FILLER_28_121
*558 FILLER_28_133
*559 FILLER_28_139
*560 FILLER_28_141
*561 FILLER_28_15
*562 FILLER_28_153
*563 FILLER_28_165
*564 FILLER_28_177
*565 FILLER_28_189
*566 FILLER_28_195
*567 FILLER_28_197
*568 FILLER_28_209
*569 FILLER_28_221
*570 FILLER_28_27
*571 FILLER_28_29
*572 FILLER_28_3
*573 FILLER_28_41
*574 FILLER_28_53
*575 FILLER_28_65
*576 FILLER_28_77
*577 FILLER_28_83
*578 FILLER_28_85
*579 FILLER_28_97
*580 FILLER_29_109
*581 FILLER_29_113
*582 FILLER_29_125
*583 FILLER_29_137
*584 FILLER_29_149
*585 FILLER_29_15
*586 FILLER_29_161
*587 FILLER_29_167
*588 FILLER_29_169
*589 FILLER_29_177
*590 FILLER_29_181
*591 FILLER_29_193
*592 FILLER_29_205
*593 FILLER_29_217
*594 FILLER_29_223
*595 FILLER_29_225
*596 FILLER_29_27
*597 FILLER_29_3
*598 FILLER_29_39
*599 FILLER_29_51
*600 FILLER_29_55
*601 FILLER_29_57
*602 FILLER_29_69
*603 FILLER_29_73
*604 FILLER_29_85
*605 FILLER_29_97
*606 FILLER_2_109
*607 FILLER_2_121
*608 FILLER_2_133
*609 FILLER_2_139
*610 FILLER_2_141
*611 FILLER_2_15
*612 FILLER_2_153
*613 FILLER_2_165
*614 FILLER_2_177
*615 FILLER_2_189
*616 FILLER_2_195
*617 FILLER_2_197
*618 FILLER_2_209
*619 FILLER_2_221
*620 FILLER_2_27
*621 FILLER_2_29
*622 FILLER_2_3
*623 FILLER_2_41
*624 FILLER_2_53
*625 FILLER_2_65
*626 FILLER_2_77
*627 FILLER_2_83
*628 FILLER_2_85
*629 FILLER_2_97
*630 FILLER_30_109
*631 FILLER_30_121
*632 FILLER_30_133
*633 FILLER_30_139
*634 FILLER_30_141
*635 FILLER_30_15
*636 FILLER_30_153
*637 FILLER_30_165
*638 FILLER_30_177
*639 FILLER_30_189
*640 FILLER_30_195
*641 FILLER_30_197
*642 FILLER_30_209
*643 FILLER_30_221
*644 FILLER_30_27
*645 FILLER_30_29
*646 FILLER_30_3
*647 FILLER_30_41
*648 FILLER_30_53
*649 FILLER_30_65
*650 FILLER_30_77
*651 FILLER_30_83
*652 FILLER_30_85
*653 FILLER_30_97
*654 FILLER_31_105
*655 FILLER_31_111
*656 FILLER_31_113
*657 FILLER_31_125
*658 FILLER_31_137
*659 FILLER_31_149
*660 FILLER_31_15
*661 FILLER_31_161
*662 FILLER_31_167
*663 FILLER_31_169
*664 FILLER_31_181
*665 FILLER_31_193
*666 FILLER_31_205
*667 FILLER_31_217
*668 FILLER_31_223
*669 FILLER_31_225
*670 FILLER_31_27
*671 FILLER_31_3
*672 FILLER_31_39
*673 FILLER_31_51
*674 FILLER_31_55
*675 FILLER_31_57
*676 FILLER_31_69
*677 FILLER_31_81
*678 FILLER_31_93
*679 FILLER_32_109
*680 FILLER_32_121
*681 FILLER_32_133
*682 FILLER_32_139
*683 FILLER_32_141
*684 FILLER_32_15
*685 FILLER_32_153
*686 FILLER_32_165
*687 FILLER_32_177
*688 FILLER_32_189
*689 FILLER_32_195
*690 FILLER_32_197
*691 FILLER_32_209
*692 FILLER_32_221
*693 FILLER_32_27
*694 FILLER_32_29
*695 FILLER_32_3
*696 FILLER_32_41
*697 FILLER_32_53
*698 FILLER_32_65
*699 FILLER_32_77
*700 FILLER_32_83
*701 FILLER_32_85
*702 FILLER_32_97
*703 FILLER_33_100
*704 FILLER_33_113
*705 FILLER_33_125
*706 FILLER_33_137
*707 FILLER_33_149
*708 FILLER_33_15
*709 FILLER_33_161
*710 FILLER_33_167
*711 FILLER_33_169
*712 FILLER_33_181
*713 FILLER_33_193
*714 FILLER_33_205
*715 FILLER_33_217
*716 FILLER_33_223
*717 FILLER_33_225
*718 FILLER_33_27
*719 FILLER_33_3
*720 FILLER_33_39
*721 FILLER_33_51
*722 FILLER_33_55
*723 FILLER_33_57
*724 FILLER_33_69
*725 FILLER_33_77
*726 FILLER_34_121
*727 FILLER_34_133
*728 FILLER_34_139
*729 FILLER_34_141
*730 FILLER_34_15
*731 FILLER_34_153
*732 FILLER_34_165
*733 FILLER_34_177
*734 FILLER_34_189
*735 FILLER_34_195
*736 FILLER_34_197
*737 FILLER_34_209
*738 FILLER_34_221
*739 FILLER_34_27
*740 FILLER_34_29
*741 FILLER_34_3
*742 FILLER_34_41
*743 FILLER_34_81
*744 FILLER_34_85
*745 FILLER_34_97
*746 FILLER_35_102
*747 FILLER_35_110
*748 FILLER_35_113
*749 FILLER_35_122
*750 FILLER_35_134
*751 FILLER_35_14
*752 FILLER_35_141
*753 FILLER_35_153
*754 FILLER_35_165
*755 FILLER_35_169
*756 FILLER_35_174
*757 FILLER_35_18
*758 FILLER_35_186
*759 FILLER_35_194
*760 FILLER_35_197
*761 FILLER_35_209
*762 FILLER_35_221
*763 FILLER_35_228
*764 FILLER_35_26
*765 FILLER_35_29
*766 FILLER_35_41
*767 FILLER_35_53
*768 FILLER_35_57
*769 FILLER_35_6
*770 FILLER_35_69
*771 FILLER_35_81
*772 FILLER_3_105
*773 FILLER_3_111
*774 FILLER_3_113
*775 FILLER_3_125
*776 FILLER_3_137
*777 FILLER_3_149
*778 FILLER_3_15
*779 FILLER_3_161
*780 FILLER_3_167
*781 FILLER_3_169
*782 FILLER_3_181
*783 FILLER_3_193
*784 FILLER_3_205
*785 FILLER_3_217
*786 FILLER_3_223
*787 FILLER_3_225
*788 FILLER_3_27
*789 FILLER_3_3
*790 FILLER_3_39
*791 FILLER_3_51
*792 FILLER_3_55
*793 FILLER_3_57
*794 FILLER_3_69
*795 FILLER_3_81
*796 FILLER_3_93
*797 FILLER_4_109
*798 FILLER_4_121
*799 FILLER_4_133
*800 FILLER_4_139
*801 FILLER_4_141
*802 FILLER_4_15
*803 FILLER_4_153
*804 FILLER_4_165
*805 FILLER_4_177
*806 FILLER_4_189
*807 FILLER_4_195
*808 FILLER_4_197
*809 FILLER_4_209
*810 FILLER_4_221
*811 FILLER_4_27
*812 FILLER_4_29
*813 FILLER_4_3
*814 FILLER_4_41
*815 FILLER_4_53
*816 FILLER_4_65
*817 FILLER_4_77
*818 FILLER_4_83
*819 FILLER_4_85
*820 FILLER_4_97
*821 FILLER_5_105
*822 FILLER_5_111
*823 FILLER_5_113
*824 FILLER_5_125
*825 FILLER_5_137
*826 FILLER_5_149
*827 FILLER_5_15
*828 FILLER_5_161
*829 FILLER_5_167
*830 FILLER_5_169
*831 FILLER_5_181
*832 FILLER_5_193
*833 FILLER_5_205
*834 FILLER_5_217
*835 FILLER_5_223
*836 FILLER_5_225
*837 FILLER_5_27
*838 FILLER_5_3
*839 FILLER_5_39
*840 FILLER_5_51
*841 FILLER_5_55
*842 FILLER_5_57
*843 FILLER_5_69
*844 FILLER_5_81
*845 FILLER_5_93
*846 FILLER_6_109
*847 FILLER_6_121
*848 FILLER_6_133
*849 FILLER_6_139
*850 FILLER_6_141
*851 FILLER_6_15
*852 FILLER_6_153
*853 FILLER_6_165
*854 FILLER_6_177
*855 FILLER_6_183
*856 FILLER_6_195
*857 FILLER_6_197
*858 FILLER_6_209
*859 FILLER_6_221
*860 FILLER_6_27
*861 FILLER_6_29
*862 FILLER_6_3
*863 FILLER_6_41
*864 FILLER_6_53
*865 FILLER_6_65
*866 FILLER_6_70
*867 FILLER_6_82
*868 FILLER_6_85
*869 FILLER_6_97
*870 FILLER_7_105
*871 FILLER_7_111
*872 FILLER_7_113
*873 FILLER_7_125
*874 FILLER_7_137
*875 FILLER_7_149
*876 FILLER_7_15
*877 FILLER_7_161
*878 FILLER_7_167
*879 FILLER_7_169
*880 FILLER_7_181
*881 FILLER_7_193
*882 FILLER_7_205
*883 FILLER_7_217
*884 FILLER_7_223
*885 FILLER_7_225
*886 FILLER_7_27
*887 FILLER_7_3
*888 FILLER_7_39
*889 FILLER_7_51
*890 FILLER_7_55
*891 FILLER_7_57
*892 FILLER_7_69
*893 FILLER_7_81
*894 FILLER_7_93
*895 FILLER_8_109
*896 FILLER_8_121
*897 FILLER_8_133
*898 FILLER_8_139
*899 FILLER_8_141
*900 FILLER_8_15
*901 FILLER_8_153
*902 FILLER_8_165
*903 FILLER_8_177
*904 FILLER_8_189
*905 FILLER_8_195
*906 FILLER_8_197
*907 FILLER_8_209
*908 FILLER_8_221
*909 FILLER_8_27
*910 FILLER_8_29
*911 FILLER_8_3
*912 FILLER_8_41
*913 FILLER_8_53
*914 FILLER_8_65
*915 FILLER_8_77
*916 FILLER_8_83
*917 FILLER_8_85
*918 FILLER_8_97
*919 FILLER_9_105
*920 FILLER_9_111
*921 FILLER_9_113
*922 FILLER_9_125
*923 FILLER_9_137
*924 FILLER_9_149
*925 FILLER_9_161
*926 FILLER_9_167
*927 FILLER_9_169
*928 FILLER_9_18
*929 FILLER_9_181
*930 FILLER_9_193
*931 FILLER_9_205
*932 FILLER_9_217
*933 FILLER_9_223
*934 FILLER_9_225
*935 FILLER_9_229
*936 FILLER_9_30
*937 FILLER_9_42
*938 FILLER_9_54
*939 FILLER_9_57
*940 FILLER_9_6
*941 FILLER_9_69
*942 FILLER_9_81
*943 FILLER_9_93
*944 PHY_0
*945 PHY_1
*946 PHY_10
*947 PHY_11
*948 PHY_12
*949 PHY_13
*950 PHY_14
*951 PHY_15
*952 PHY_16
*953 PHY_17
*954 PHY_18
*955 PHY_19
*956 PHY_2
*957 PHY_20
*958 PHY_21
*959 PHY_22
*960 PHY_23
*961 PHY_24
*962 PHY_25
*963 PHY_26
*964 PHY_27
*965 PHY_28
*966 PHY_29
*967 PHY_3
*968 PHY_30
*969 PHY_31
*970 PHY_32
*971 PHY_33
*972 PHY_34
*973 PHY_35
*974 PHY_36
*975 PHY_37
*976 PHY_38
*977 PHY_39
*978 PHY_4
*979 PHY_40
*980 PHY_41
*981 PHY_42
*982 PHY_43
*983 PHY_44
*984 PHY_45
*985 PHY_46
*986 PHY_47
*987 PHY_48
*988 PHY_49
*989 PHY_5
*990 PHY_50
*991 PHY_51
*992 PHY_52
*993 PHY_53
*994 PHY_54
*995 PHY_55
*996 PHY_56
*997 PHY_57
*998 PHY_58
*999 PHY_59
*1000 PHY_6
*1001 PHY_60
*1002 PHY_61
*1003 PHY_62
*1004 PHY_63
*1005 PHY_64
*1006 PHY_65
*1007 PHY_66
*1008 PHY_67
*1009 PHY_68
*1010 PHY_69
*1011 PHY_7
*1012 PHY_70
*1013 PHY_71
*1014 PHY_8
*1015 PHY_9
*1016 TAP_100
*1017 TAP_101
*1018 TAP_102
*1019 TAP_103
*1020 TAP_104
*1021 TAP_105
*1022 TAP_106
*1023 TAP_107
*1024 TAP_108
*1025 TAP_109
*1026 TAP_110
*1027 TAP_111
*1028 TAP_112
*1029 TAP_113
*1030 TAP_114
*1031 TAP_115
*1032 TAP_116
*1033 TAP_117
*1034 TAP_118
*1035 TAP_119
*1036 TAP_120
*1037 TAP_121
*1038 TAP_122
*1039 TAP_123
*1040 TAP_124
*1041 TAP_125
*1042 TAP_126
*1043 TAP_127
*1044 TAP_128
*1045 TAP_129
*1046 TAP_130
*1047 TAP_131
*1048 TAP_132
*1049 TAP_133
*1050 TAP_134
*1051 TAP_135
*1052 TAP_136
*1053 TAP_137
*1054 TAP_138
*1055 TAP_139
*1056 TAP_140
*1057 TAP_141
*1058 TAP_142
*1059 TAP_143
*1060 TAP_144
*1061 TAP_145
*1062 TAP_146
*1063 TAP_147
*1064 TAP_148
*1065 TAP_149
*1066 TAP_150
*1067 TAP_151
*1068 TAP_152
*1069 TAP_153
*1070 TAP_154
*1071 TAP_155
*1072 TAP_156
*1073 TAP_157
*1074 TAP_158
*1075 TAP_159
*1076 TAP_160
*1077 TAP_161
*1078 TAP_162
*1079 TAP_163
*1080 TAP_164
*1081 TAP_165
*1082 TAP_166
*1083 TAP_167
*1084 TAP_168
*1085 TAP_169
*1086 TAP_170
*1087 TAP_171
*1088 TAP_172
*1089 TAP_173
*1090 TAP_174
*1091 TAP_175
*1092 TAP_176
*1093 TAP_177
*1094 TAP_178
*1095 TAP_179
*1096 TAP_180
*1097 TAP_181
*1098 TAP_182
*1099 TAP_183
*1100 TAP_184
*1101 TAP_185
*1102 TAP_186
*1103 TAP_187
*1104 TAP_188
*1105 TAP_189
*1106 TAP_190
*1107 TAP_191
*1108 TAP_192
*1109 TAP_193
*1110 TAP_194
*1111 TAP_195
*1112 TAP_196
*1113 TAP_197
*1114 TAP_198
*1115 TAP_199
*1116 TAP_200
*1117 TAP_201
*1118 TAP_202
*1119 TAP_203
*1120 TAP_204
*1121 TAP_205
*1122 TAP_206
*1123 TAP_207
*1124 TAP_208
*1125 TAP_209
*1126 TAP_210
*1127 TAP_211
*1128 TAP_212
*1129 TAP_213
*1130 TAP_214
*1131 TAP_215
*1132 TAP_216
*1133 TAP_217
*1134 TAP_218
*1135 TAP_219
*1136 TAP_220
*1137 TAP_221
*1138 TAP_222
*1139 TAP_223
*1140 TAP_72
*1141 TAP_73
*1142 TAP_74
*1143 TAP_75
*1144 TAP_76
*1145 TAP_77
*1146 TAP_78
*1147 TAP_79
*1148 TAP_80
*1149 TAP_81
*1150 TAP_82
*1151 TAP_83
*1152 TAP_84
*1153 TAP_85
*1154 TAP_86
*1155 TAP_87
*1156 TAP_88
*1157 TAP_89
*1158 TAP_90
*1159 TAP_91
*1160 TAP_92
*1161 TAP_93
*1162 TAP_94
*1163 TAP_95
*1164 TAP_96
*1165 TAP_97
*1166 TAP_98
*1167 TAP_99
*1168 _32_
*1169 _33_
*1170 _34_
*1171 _35_
*1172 _36_
*1173 _37_
*1174 _38_
*1175 _39_
*1176 _40_
*1177 _41_
*1178 _42_
*1179 _43_
*1180 _44_
*1181 _45_
*1182 _46_
*1183 _47_
*1184 _48_
*1185 _49_
*1186 _50_
*1187 _51_
*1188 _52_
*1189 _53_
*1190 _54_
*1191 _55_
*1192 _56_
*1193 _57_
*1194 _58_
*1195 _59_
*1196 _60_
*1197 _61_
*1198 _62_
*1199 _63_
*1200 _64_
*1201 _65_
*1202 clkbuf_0_clk
*1203 clkbuf_1_0__f_clk
*1204 clkbuf_1_1__f_clk
*1205 input1
*1206 input10
*1207 input11
*1208 input12
*1209 input13
*1210 input14
*1211 input15
*1212 input2
*1213 input3
*1214 input4
*1215 input5
*1216 input6
*1217 input7
*1218 input8
*1219 input9
*1220 output16
*1221 output17

*PORTS
clk I
d I
dl I
dr I
in_data I
l I
load_in I
load_out I
out_data O
prev_out_data I
r I
reset I
run I
shift I
state O
u I
ul I
ur I
vccd1 I
vssd1 I

*D_NET *3 0.00228043
*CONN
*P clk I
*I *1202:A I *D sky130_fd_sc_hd__clkbuf_16
*CAP
1 clk 0.00114022
2 *1202:A 0
3 *3:9 0.00114022
*RES
1 clk *3:9 36.5014 
2 *3:9 *1202:A 23 
*END

*D_NET *4 0.000901682
*CONN
*P d I
*I *1205:A I *D sky130_fd_sc_hd__buf_1
*CAP
1 d 0.000450841
2 *1205:A 0.000450841
*RES
1 d *1205:A 47.3214 
*END

*D_NET *5 0.000901682
*CONN
*P dl I
*I *1212:A I *D sky130_fd_sc_hd__buf_1
*CAP
1 dl 0.000450841
2 *1212:A 0.000450841
*RES
1 dl *1212:A 47.3214 
*END

*D_NET *6 0.00110686
*CONN
*P dr I
*I *1213:A I *D sky130_fd_sc_hd__buf_1
*CAP
1 dr 0.000553428
2 *1213:A 0.000553428
*RES
1 dr *1213:A 49.2271 
*END

*D_NET *7 0.00060101
*CONN
*P in_data I
*I *1214:A I *D sky130_fd_sc_hd__clkbuf_1
*CAP
1 in_data 0.000300505
2 *1214:A 0
3 *7:13 0.000300505
*RES
1 in_data *7:13 27.2332 
2 *7:13 *1214:A 23 
*END

*D_NET *8 0.000717501
*CONN
*P l I
*I *1215:A I *D sky130_fd_sc_hd__buf_1
*CAP
1 l 0.00035875
2 *1215:A 0
3 *8:13 0.00035875
*RES
1 l *8:13 28.2896 
2 *8:13 *1215:A 23 
*END

*D_NET *9 0.000693091
*CONN
*P load_in I
*I *1216:A I *D sky130_fd_sc_hd__buf_1
*CAP
1 load_in 0.000346546
2 *1216:A 0.000346546
*RES
1 load_in *1216:A 49.5439 
*END

*D_NET *10 0.000748351
*CONN
*P load_out I
*I *1217:A I *D sky130_fd_sc_hd__buf_1
*CAP
1 load_out 0.000374176
2 *1217:A 0
3 *10:13 0.000374176
4 *10:13 *72:8 0
*RES
1 load_out *10:13 28.6417 
2 *10:13 *1217:A 23 
*END

*D_NET *11 0.000935434
*CONN
*P out_data O
*I *1220:X O *D sky130_fd_sc_hd__buf_2
*CAP
1 out_data 0.000467717
2 *1220:X 0.000467717
*RES
1 *1220:X out_data 47.0936 
*END

*D_NET *12 0.00091871
*CONN
*P prev_out_data I
*I *1218:A I *D sky130_fd_sc_hd__clkbuf_1
*CAP
1 prev_out_data 0.000459355
2 *1218:A 0.000459355
*RES
1 prev_out_data *1218:A 48.0257 
*END

*D_NET *13 0.00070608
*CONN
*P r I
*I *1219:A I *D sky130_fd_sc_hd__buf_1
*CAP
1 r 0.000325224
2 *1219:A 0.000325224
3 *1219:A *61:12 0
4 *1219:A *74:8 5.56306e-05
*RES
1 r *1219:A 49.1918 
*END

*D_NET *14 0.000734448
*CONN
*P reset I
*I *1206:A I *D sky130_fd_sc_hd__buf_1
*CAP
1 reset 0.000334487
2 *1206:A 0.000334487
3 *1206:A *59:8 6.54744e-05
*RES
1 reset *1206:A 49.5439 
*END

*D_NET *15 0.00130872
*CONN
*P run I
*I *1207:A I *D sky130_fd_sc_hd__buf_1
*CAP
1 run 0.000584912
2 *1207:A 0
3 *15:13 0.000584912
4 *15:13 *60:8 5.47927e-05
5 *15:13 *68:10 8.41012e-05
*RES
1 run *15:13 29.5004 
2 *15:13 *1207:A 23 
*END

*D_NET *16 0.000568217
*CONN
*P shift I
*I *1208:A I *D sky130_fd_sc_hd__buf_1
*CAP
1 shift 0.000284108
2 *1208:A 0.000284108
*RES
1 shift *1208:A 48.1354 
*END

*D_NET *17 0.000551572
*CONN
*P state O
*I *1221:X O *D sky130_fd_sc_hd__buf_2
*CAP
1 state 0.000263435
2 *1221:X 0.000263435
3 state *59:8 2.47015e-05
*RES
1 *1221:X state 47.1648 
*END

*D_NET *18 0.00093887
*CONN
*P u I
*I *1209:A I *D sky130_fd_sc_hd__buf_1
*CAP
1 u 0.000469435
2 *1209:A 0.000469435
*RES
1 u *1209:A 48.0257 
*END

*D_NET *19 0.00091871
*CONN
*P ul I
*I *1210:A I *D sky130_fd_sc_hd__buf_1
*CAP
1 ul 0.000459355
2 *1210:A 0.000459355
*RES
1 ul *1210:A 48.0257 
*END

*D_NET *20 0.00116884
*CONN
*P ur I
*I *1211:A I *D sky130_fd_sc_hd__buf_1
*CAP
1 ur 0.000555248
2 *1211:A 0.000555248
3 *1211:A *64:6 5.83407e-05
*RES
1 ur *1211:A 49.9314 
*END

*D_NET *23 0.00873236
*CONN
*I *1200:D I *D sky130_fd_sc_hd__dfxtp_2
*I *1196:Y O *D sky130_fd_sc_hd__a21oi_1
*CAP
1 *1200:D 0
2 *1196:Y 4.88336e-05
3 *23:14 0.00152413
4 *23:10 0.00321792
5 *23:8 0.00174262
6 *23:8 *1175:A 2.93747e-05
7 *23:10 *27:10 0.00181155
8 *23:10 *53:14 0.00035793
*RES
1 *1196:Y *23:8 38.6214 
2 *23:8 *23:10 42.05 
3 *23:10 *23:14 40.7116 
4 *23:14 *1200:D 23 
*END

*D_NET *24 0.00810175
*CONN
*I *1201:D I *D sky130_fd_sc_hd__dfxtp_1
*I *1199:X O *D sky130_fd_sc_hd__o21a_1
*CAP
1 *1201:D 0
2 *1199:X 0
3 *24:12 0.00140258
4 *24:10 0.00307313
5 *24:6 0.00167054
6 *24:10 *1198:A1 0
7 *24:10 *54:10 4.08537e-05
8 *24:10 *72:20 0
9 *24:12 *1203:A 0.00105657
10 *24:12 *1204:A 0.000390369
11 *24:12 *72:18 0.000467698
*RES
1 *1199:X *24:6 38 
2 *24:6 *24:10 47.5421 
3 *24:10 *24:12 31.1595 
4 *24:12 *1201:D 23 
*END

*D_NET *25 0.00479454
*CONN
*I *1178:A1 I *D sky130_fd_sc_hd__o21a_1
*I *1186:A I *D sky130_fd_sc_hd__xnor2_1
*I *1168:Y O *D sky130_fd_sc_hd__inv_2
*CAP
1 *1178:A1 0
2 *1186:A 9.68365e-05
3 *1168:Y 0
4 *25:12 0.00080885
5 *25:10 0.00197155
6 *25:6 0.00125954
7 *1186:A *1178:A2 0.000326366
8 *1186:A *1188:A1 5.67058e-05
9 *1186:A *1188:A2 0.000136533
10 *1186:A *34:14 5.67058e-05
11 *25:10 *65:20 0
12 *25:12 *1188:A1 5.67058e-05
13 *25:12 *1188:A2 2.4754e-05
*RES
1 *1168:Y *25:6 38 
2 *25:6 *25:10 39.4429 
3 *25:10 *25:12 13.0086 
4 *25:12 *1186:A 27.4536 
5 *25:12 *1178:A1 23 
*END

*D_NET *26 0.00669778
*CONN
*I *1177:A I *D sky130_fd_sc_hd__or2_1
*I *1176:A I *D sky130_fd_sc_hd__xnor2_1
*I *1169:Y O *D sky130_fd_sc_hd__inv_2
*CAP
1 *1177:A 0.000126097
2 *1176:A 0
3 *1169:Y 0.00171601
4 *26:12 0.000126097
5 *26:10 0.00101635
6 *26:6 0.00273237
7 *1177:A *1176:B 0.000228001
8 *1177:A *32:8 0.00010018
9 *26:10 *62:12 0.000652669
*RES
1 *1169:Y *26:6 45.5371 
2 *26:6 *26:10 39.795 
3 *26:10 *26:12 15 
4 *26:12 *1176:A 23 
5 *26:12 *1177:A 26.48 
*END

*D_NET *27 0.00756043
*CONN
*I *1175:A I *D sky130_fd_sc_hd__xnor2_1
*I *1182:A1 I *D sky130_fd_sc_hd__o21a_1
*I *1170:Y O *D sky130_fd_sc_hd__inv_2
*CAP
1 *1175:A 0.000122616
2 *1182:A1 0.000302572
3 *1170:Y 0.000956415
4 *27:10 0.00115389
5 *27:6 0.00168512
6 *1175:A *34:8 0.000141954
7 *1175:A *52:14 9.67842e-05
8 *1175:A *66:59 0.000125584
9 *1182:A1 *1196:B1 5.94125e-05
10 *1182:A1 *34:14 1.44813e-05
11 *1182:A1 *53:14 7.56417e-05
12 *1182:A1 *65:16 0.000310647
13 *27:10 *1196:B1 0.000438165
14 *27:10 *53:14 2.24151e-05
15 *27:10 *59:31 0.00021382
16 *23:8 *1175:A 2.93747e-05
17 *23:10 *27:10 0.00181155
*RES
1 *1170:Y *27:6 35.5321 
2 *27:6 *27:10 39.4429 
3 *27:10 *1182:A1 44.4421 
4 *27:10 *1175:A 41.5007 
*END

*D_NET *28 0.00616471
*CONN
*I *1181:A I *D sky130_fd_sc_hd__or2_1
*I *1174:A I *D sky130_fd_sc_hd__xnor2_1
*I *1171:Y O *D sky130_fd_sc_hd__inv_2
*CAP
1 *1181:A 0
2 *1174:A 0
3 *1171:Y 0.000867909
4 *28:27 0.000192151
5 *28:14 0.00198327
6 *28:8 0.00265903
7 *28:14 *66:14 0
8 *28:27 *30:29 0.000212444
9 *28:27 *58:10 0.000249909
*RES
1 *1171:Y *28:8 49.5793 
2 *28:8 *28:14 48.6814 
3 *28:14 *1174:A 23 
4 *28:14 *28:27 35.365 
5 *28:27 *1181:A 23 
*END

*D_NET *29 0.00232819
*CONN
*I *1180:A2 I *D sky130_fd_sc_hd__a21oi_1
*I *1173:B I *D sky130_fd_sc_hd__xnor2_1
*I *1172:X O *D sky130_fd_sc_hd__xor2_1
*CAP
1 *1180:A2 0.000125555
2 *1173:B 2.34823e-05
3 *1172:X 0.000344386
4 *29:6 0.000493423
5 *1180:A2 *1173:A 8.03063e-05
6 *1180:A2 *37:10 5.50049e-05
7 *1180:A2 *74:12 4.34745e-05
8 *29:6 *1173:A 2.37129e-05
9 *29:6 *1179:A 0.000352421
10 *29:6 *30:10 0.000645414
11 *29:6 *36:14 0.000100736
12 *29:6 *50:10 4.02798e-05
*RES
1 *1172:X *29:6 32.6736 
2 *29:6 *1173:B 23.4971 
3 *29:6 *1180:A2 26.5214 
*END

*D_NET *30 0.0040101
*CONN
*I *1174:B I *D sky130_fd_sc_hd__xnor2_1
*I *1181:B I *D sky130_fd_sc_hd__or2_1
*I *1173:Y O *D sky130_fd_sc_hd__xnor2_1
*CAP
1 *1174:B 0
2 *1181:B 0.000176766
3 *1173:Y 0.00070094
4 *30:29 0.000276949
5 *30:14 0.000663173
6 *30:10 0.000910397
7 *30:10 *33:14 0
8 *30:10 *35:36 0
9 *30:10 *38:8 0
10 *30:10 *40:24 0.000169683
11 *30:10 *46:10 0.000114074
12 *30:29 *31:8 0.000140259
13 *30:29 *58:10 0
14 *28:27 *30:29 0.000212444
15 *29:6 *30:10 0.000645414
*RES
1 *1173:Y *30:10 49.6621 
2 *30:10 *30:14 18.48 
3 *30:14 *1181:B 25.5271 
4 *30:14 *30:29 36.3179 
5 *30:29 *1174:B 23 
*END

*D_NET *31 0.00414338
*CONN
*I *1175:B I *D sky130_fd_sc_hd__xnor2_1
*I *1182:A2 I *D sky130_fd_sc_hd__o21a_1
*I *1174:Y O *D sky130_fd_sc_hd__xnor2_1
*CAP
1 *1175:B 0.00017921
2 *1182:A2 0
3 *1174:Y 0.000666223
4 *31:10 0.000718561
5 *31:8 0.00120557
6 *1175:B *34:8 5.50106e-05
7 *1175:B *50:10 0.000210659
8 *1175:B *52:14 9.00542e-05
9 *1175:B *66:59 5.50106e-05
10 *31:10 *1188:A2 9.39262e-05
11 *31:10 *33:14 0
12 *31:10 *39:10 0.00012303
13 *31:10 *50:10 0.000302339
14 *31:10 *52:14 0.000303528
15 *30:29 *31:8 0.000140259
*RES
1 *1174:Y *31:8 49.5793 
2 *31:8 *31:10 12.8221 
3 *31:10 *1182:A2 38 
4 *31:10 *1175:B 42.64 
*END

*D_NET *32 0.00232749
*CONN
*I *1177:B I *D sky130_fd_sc_hd__or2_1
*I *1176:B I *D sky130_fd_sc_hd__xnor2_1
*I *1175:Y O *D sky130_fd_sc_hd__xnor2_1
*CAP
1 *1177:B 0
2 *1176:B 0.000162322
3 *1175:Y 0.000254752
4 *32:8 0.000417074
5 *1176:B *33:8 5.67058e-05
6 *32:8 *33:8 0.00068868
7 *32:8 *34:8 0.000186868
8 *32:8 *66:40 5.50106e-05
9 *32:8 *66:59 0.000177901
10 *1177:A *1176:B 0.000228001
11 *1177:A *32:8 0.00010018
*RES
1 *1175:Y *32:8 33.1707 
2 *32:8 *1176:B 26.8529 
3 *32:8 *1177:B 23 
*END

*D_NET *33 0.00508731
*CONN
*I *1186:B I *D sky130_fd_sc_hd__xnor2_1
*I *1178:A2 I *D sky130_fd_sc_hd__o21a_1
*I *1176:Y O *D sky130_fd_sc_hd__xnor2_1
*CAP
1 *1186:B 0
2 *1178:A2 0.00019907
3 *1176:Y 0.000495759
4 *33:14 0.000957777
5 *33:8 0.00125447
6 *1178:A2 *1188:A2 1.03955e-05
7 *33:14 *1188:A2 5.41288e-05
8 *33:14 *1192:A1 0
9 *33:14 *35:36 0.000444772
10 *33:14 *39:10 0
11 *33:14 *43:8 0.000138889
12 *33:14 *50:10 0
13 *33:14 *62:35 0.000166513
14 *33:14 *66:40 0.000293785
15 *1176:B *33:8 5.67058e-05
16 *1186:A *1178:A2 0.000326366
17 *30:10 *33:14 0
18 *31:10 *33:14 0
19 *32:8 *33:8 0.00068868
*RES
1 *1176:Y *33:8 46.2443 
2 *33:8 *33:14 31.53 
3 *33:14 *1178:A2 27.4536 
4 *33:14 *1186:B 23 
*END

*D_NET *34 0.00402778
*CONN